%mem=12gb
%nproc=6
#p amber=softonly geom=connectivity nosymm
iop(4/33=3,7/33=1)
freq=noraman

MM-name

0 1
C-ca--0.160490    2.863320359464    1.016711880415   -0.651013656749
C-ca--0.110334    1.466860695745    1.015670994138   -0.651237996134
C-cp-0.046414    0.743601025341    0.000000000024    0.000000000144
C-ca--0.110334    1.466860695745   -1.015670994138    0.651237996134
C-ca--0.160490    2.863320364756   -1.016711880415    0.651013656749
C-ca--0.110138    3.568488863426   -0.000000000017   -0.000000000063
H-ha-0.131815    3.400610172178    1.807816360590   -1.168355266734
H-ha-0.109443    0.930181574697    1.797144248028   -1.182954921954
H-ha-0.109443    0.930181574697   -1.797144248028    1.182954921954
H-ha-0.131815    3.400610172178   -1.807816360590    1.168355266734
H-ha-0.122858    4.655448690193   -0.000000000039   -0.000000000146
C-cp-0.046414   -0.743611444840    0.000000000005    0.000000000180
C-ca--0.110334   -1.466864130105   -1.195509243762   -0.162672304550
C-ca--0.110334   -1.466864130105    1.195509243762    0.162672304550
C-ca--0.160490   -2.863321925828   -1.196359975501   -0.162023281934
H-ha-0.109443   -0.930164847405   -2.128263969094   -0.315571491357
C-ca--0.160490   -2.863321925828    1.196359975501    0.162023281404
H-ha-0.109443   -0.930164847405    2.128263969094    0.315571491357
C-ca--0.110138   -3.568489667775    0.000000000003   -0.000000000081
H-ha-0.131815   -3.400615876708   -2.131793755704   -0.297844602567
H-ha-0.131815   -3.400615876708    2.131793755704    0.297844602567
H-ha-0.122858   -4.655449521001    0.000000000006   -0.000000000175

 1 2 1.5 6 1.5 7 1.0
 2 3 1.5 8 1.0
 3 4 1.5 12 1.0
 4 5 1.5 9 1.0
 5 6 1.5 10 1.0
 6 11 1.0
 7
 8
 9
 10
 11
 12 13 1.5 14 1.5
 13 15 1.5 16 1.0
 14 17 1.5 18 1.0
 15 19 1.5 20 1.0
 16
 17 19 1.5 21 1.0
 18
 19 22 1.0
 20
 21
 22

AmbTrs * ca ca * 0 180 0 0 0.0 XXXXXX 0.0 0.0 4.0  
AmbTrs * ca cp * 0 180 0 0 0.0 XXXXXX 0.0 0.0 4.0 
AmbTrs * cp cp * 0 180 0 0 0.0 XXXXXX 0.0 0.0 4.0
HrmBnd1 ca ca ha XXXXXX 119.8966 
HrmBnd1 ca ca cp XXXXXX 120.9717 
HrmBnd1 ca ca ca XXXXXX 119.9793 
HrmBnd1 cp ca ha XXXXXX 119.4531 
HrmBnd1 ca cp ca XXXXXX 118.1185 
HrmBnd1 ca cp cp XXXXXX 120.9408 
HrmStr1 ca ha XXXXXX 1.08708
HrmStr1 ca ca XXXXXX 1.39730
HrmStr1 ca cp XXXXXX 1.40670
HrmStr1 cp cp XXXXXX 1.48721
Nonbon 3 1 0 0 0.0 0.0 0.5 0.0 0.0 -1.2
VDW ha  1.4590  0.0150
VDW ca  1.9080  0.0860
VDW cp  1.9080  0.0860

